2
Coordinates from ORCA-job pes E  -1.050801399624
  H      -3.552703      1.369244      0.000000
  H      -3.053627      1.338866      0.000000
2
Coordinates from ORCA-job pes E  -1.050801399624
  H      -3.552703      1.369244      0.000000
  H      -3.053627      1.338866      0.000000
2
Coordinates from ORCA-job pes E  -1.121607835380
  H      -3.649463      1.375133      0.000000
  H      -2.956867      1.332977      0.000000
2
Coordinates from ORCA-job pes E  -1.121607835380
  H      -3.649463      1.375133      0.000000
  H      -2.956867      1.332977      0.000000
2
Coordinates from ORCA-job pes E  -1.110163964487
  H      -3.746223      1.381023      0.000000
  H      -2.860107      1.327087      0.000000
2
Coordinates from ORCA-job pes E  -1.110163964488
  H      -3.746223      1.381023      0.000000
  H      -2.860107      1.327087      0.000000
2
Coordinates from ORCA-job pes E  -1.075695006120
  H      -3.842982      1.386912      0.000000
  H      -2.763348      1.321198      0.000000
2
Coordinates from ORCA-job pes E  -1.075695006120
  H      -3.842982      1.386912      0.000000
  H      -2.763348      1.321198      0.000000
2
Coordinates from ORCA-job pes E  -1.036498312189
  H      -3.939742      1.392801      0.000000
  H      -2.666588      1.315309      0.000000
2
Coordinates from ORCA-job pes E  -1.036498312190
  H      -3.939742      1.392801      0.000000
  H      -2.666588      1.315309      0.000000
2
Coordinates from ORCA-job pes E  -0.998076506850
  H      -4.036502      1.398691      0.000000
  H      -2.569828      1.309419      0.000000
2
Coordinates from ORCA-job pes E  -0.998076506856
  H      -4.036502      1.398691      0.000000
  H      -2.569828      1.309419      0.000000
2
Coordinates from ORCA-job pes E  -0.962206863625
  H      -4.133261      1.404580      0.000000
  H      -2.473069      1.303530      0.000000
2
Coordinates from ORCA-job pes E  -0.962206863625
  H      -4.133261      1.404580      0.000000
  H      -2.473069      1.303530      0.000000
2
Coordinates from ORCA-job pes E  -0.929604557197
  H      -4.230021      1.410470      0.000000
  H      -2.376309      1.297640      0.000000
2
Coordinates from ORCA-job pes E  -0.929604557197
  H      -4.230021      1.410470      0.000000
  H      -2.376309      1.297640      0.000000
2
Coordinates from ORCA-job pes E  -0.900473504620
  H      -4.326781      1.416359      0.000000
  H      -2.279549      1.291751      0.000000
2
Coordinates from ORCA-job pes E  -0.900473504620
  H      -4.326781      1.416359      0.000000
  H      -2.279549      1.291751      0.000000
2
Coordinates from ORCA-job pes E  -0.874723465224
  H      -4.423541      1.422249      0.000000
  H      -2.182789      1.285861      0.000000
2
Coordinates from ORCA-job pes E  -0.874723465224
  H      -4.423541      1.422249      0.000000
  H      -2.182789      1.285861      0.000000
2
Coordinates from ORCA-job pes E  -0.852141960971
  H      -4.520300      1.428138      0.000000
  H      -2.086030      1.279972      0.000000
2
Coordinates from ORCA-job pes E  -0.852141960972
  H      -4.520300      1.428138      0.000000
  H      -2.086030      1.279972      0.000000
2
Coordinates from ORCA-job pes E  -0.832491820614
  H      -4.617060      1.434028      0.000000
  H      -1.989270      1.274082      0.000000
2
Coordinates from ORCA-job pes E  -0.832491820614
  H      -4.617060      1.434028      0.000000
  H      -1.989270      1.274082      0.000000
2
Coordinates from ORCA-job pes E  -0.815542505578
  H      -4.713820      1.439917      0.000000
  H      -1.892510      1.268193      0.000000
2
Coordinates from ORCA-job pes E  -0.815542505579
  H      -4.713820      1.439917      0.000000
  H      -1.892510      1.268193      0.000000
2
Coordinates from ORCA-job pes E  -0.801068411409
  H      -4.810579      1.445807      0.000000
  H      -1.795751      1.262303      0.000000
2
Coordinates from ORCA-job pes E  -0.801068411413
  H      -4.810579      1.445807      0.000000
  H      -1.795751      1.262303      0.000000
2
Coordinates from ORCA-job pes E  -0.788837765229
  H      -4.907339      1.451696      0.000000
  H      -1.698991      1.256414      0.000000
2
Coordinates from ORCA-job pes E  -0.788837765340
  H      -4.907339      1.451696      0.000000
  H      -1.698991      1.256414      0.000000
2
Coordinates from ORCA-job pes E  -0.778605231212
  H      -5.004099      1.457586      0.000000
  H      -1.602231      1.250524      0.000000
2
Coordinates from ORCA-job pes E  -0.778605231211
  H      -5.004099      1.457586      0.000000
  H      -1.602231      1.250524      0.000000
2
Coordinates from ORCA-job pes E  -0.770113524451
  H      -5.100858      1.463475      0.000000
  H      -1.505472      1.244635      0.000000
2
Coordinates from ORCA-job pes E  -0.770113524448
  H      -5.100858      1.463475      0.000000
  H      -1.505472      1.244635      0.000000
2
Coordinates from ORCA-job pes E  -0.763102603002
  H      -5.197618      1.469364      0.000000
  H      -1.408712      1.238746      0.000000
2
Coordinates from ORCA-job pes E  -0.763102602997
  H      -5.197618      1.469364      0.000000
  H      -1.408712      1.238746      0.000000
2
Coordinates from ORCA-job pes E  -0.757321736516
  H      -5.294378      1.475254      0.000000
  H      -1.311952      1.232856      0.000000
2
Coordinates from ORCA-job pes E  -0.757321736515
  H      -5.294378      1.475254      0.000000
  H      -1.311952      1.232856      0.000000
2
Coordinates from ORCA-job pes E  -0.752540332435
  H      -5.391138      1.481143      0.000000
  H      -1.215192      1.226967      0.000000
2
Coordinates from ORCA-job pes E  -0.752540332435
  H      -5.391138      1.481143      0.000000
  H      -1.215192      1.226967      0.000000
2
Coordinates from ORCA-job pes E  -0.748555418068
  H      -5.487897      1.487033      0.000000
  H      -1.118433      1.221077      0.000000
2
Coordinates from ORCA-job pes E  -0.748555418068
  H      -5.487897      1.487033      0.000000
  H      -1.118433      1.221077      0.000000
2
Coordinates from ORCA-job pes E  -0.745195357263
  H      -5.584657      1.492922      0.000000
  H      -1.021673      1.215188      0.000000
2
Coordinates from ORCA-job pes E  -0.745195357268
  H      -5.584657      1.492922      0.000000
  H      -1.021673      1.215188      0.000000
2
Coordinates from ORCA-job pes E  -0.742320250544
  H      -5.681417      1.498812      0.000000
  H      -0.924913      1.209298      0.000000
2
Coordinates from ORCA-job pes E  -0.742320250638
  H      -5.681417      1.498812      0.000000
  H      -0.924913      1.209298      0.000000
2
Coordinates from ORCA-job pes E  -0.739819826827
  H      -5.778176      1.504701      0.000000
  H      -0.828154      1.203409      0.000000
2
Coordinates from ORCA-job pes E  -0.739819826867
  H      -5.778176      1.504701      0.000000
  H      -0.828154      1.203409      0.000000
2
Coordinates from ORCA-job pes E  -0.737609716767
  H      -5.874936      1.510591      0.000000
  H      -0.731394      1.197519      0.000000
2
Coordinates from ORCA-job pes E  -0.737609716778
  H      -5.874936      1.510591      0.000000
  H      -0.731394      1.197519      0.000000
2
Coordinates from ORCA-job pes E  -0.735626956388
  H      -5.971696      1.516480      0.000000
  H      -0.634634      1.191630      0.000000
2
Coordinates from ORCA-job pes E  -0.735626956889
  H      -5.971696      1.516480      0.000000
  H      -0.634634      1.191630      0.000000
2
Coordinates from ORCA-job pes E  -0.733825415405
  H      -6.068456      1.522370      0.000000
  H      -0.537874      1.185740      0.000000
2
Coordinates from ORCA-job pes E  -0.733825415576
  H      -6.068456      1.522370      0.000000
  H      -0.537874      1.185740      0.000000
2
Coordinates from ORCA-job pes E  -0.732171630480
  H      -6.165215      1.528259      0.000000
  H      -0.441115      1.179851      0.000000
2
Coordinates from ORCA-job pes E  -0.732171630535
  H      -6.165215      1.528259      0.000000
  H      -0.441115      1.179851      0.000000
2
Coordinates from ORCA-job pes E  -0.730641323302
  H      -6.261975      1.534149      0.000000
  H      -0.344355      1.173961      0.000000
2
Coordinates from ORCA-job pes E  -0.730641323318
  H      -6.261975      1.534149      0.000000
  H      -0.344355      1.173961      0.000000
2
Coordinates from ORCA-job pes E  -0.729216674188
  H      -6.358735      1.540038      0.000000
  H      -0.247595      1.168072      0.000000
2
Coordinates from ORCA-job pes E  -0.729216674193
  H      -6.358735      1.540038      0.000000
  H      -0.247595      1.168072      0.000000
2
Coordinates from ORCA-job pes E  -0.727884308653
  H      -6.455494      1.545927      0.000000
  H      -0.150836      1.162183      0.000000
2
Coordinates from ORCA-job pes E  -0.727884308654
  H      -6.455494      1.545927      0.000000
  H      -0.150836      1.162183      0.000000
2
Coordinates from ORCA-job pes E  -0.726633880409
  H      -6.552254      1.551817      0.000000
  H      -0.054076      1.156293      0.000000
2
Coordinates from ORCA-job pes E  -0.726633880409
  H      -6.552254      1.551817      0.000000
  H      -0.054076      1.156293      0.000000
2
Coordinates from ORCA-job pes E  -0.725457111921
  H      -6.649014      1.557706      0.000000
  H       0.042684      1.150404      0.000000
2
Coordinates from ORCA-job pes E  -0.725457111921
  H      -6.649014      1.557706      0.000000
  H       0.042684      1.150404      0.000000
2
Coordinates from ORCA-job pes E  -0.724347164596
  H      -6.745773      1.563596      0.000000
  H       0.139443      1.144514      0.000000
2
Coordinates from ORCA-job pes E  -0.724347164596
  H      -6.745773      1.563596      0.000000
  H       0.139443      1.144514      0.000000
2
Coordinates from ORCA-job pes E  -0.723298232158
  H      -6.842533      1.569485      0.000000
  H       0.236203      1.138625      0.000000
2
Coordinates from ORCA-job pes E  -0.723298232158
  H      -6.842533      1.569485      0.000000
  H       0.236203      1.138625      0.000000
2
Coordinates from ORCA-job pes E  -0.722305280006
  H      -6.939293      1.575375      0.000000
  H       0.332963      1.132735      0.000000
2
Coordinates from ORCA-job pes E  -0.722305280006
  H      -6.939293      1.575375      0.000000
  H       0.332963      1.132735      0.000000
2
Coordinates from ORCA-job pes E  -0.721363875254
  H      -7.036053      1.581264      0.000000
  H       0.429723      1.126846      0.000000
2
Coordinates from ORCA-job pes E  -0.721363875254
  H      -7.036053      1.581264      0.000000
  H       0.429723      1.126846      0.000000
2
Coordinates from ORCA-job pes E  -0.720470073138
  H      -7.132812      1.587154      0.000000
  H       0.526482      1.120956      0.000000
2
Coordinates from ORCA-job pes E  -0.720470073138
  H      -7.132812      1.587154      0.000000
  H       0.526482      1.120956      0.000000
2
Coordinates from ORCA-job pes E  -0.719620337273
  H      -7.229572      1.593043      0.000000
  H       0.623242      1.115067      0.000000
2
Coordinates from ORCA-job pes E  -0.719620337273
  H      -7.229572      1.593043      0.000000
  H       0.623242      1.115067      0.000000
2
Coordinates from ORCA-job pes E  -0.718811480538
  H      -7.326332      1.598933      0.000000
  H       0.720002      1.109177      0.000000
2
Coordinates from ORCA-job pes E  -0.718811480538
  H      -7.326332      1.598933      0.000000
  H       0.720002      1.109177      0.000000
2
Coordinates from ORCA-job pes E  -0.718040619460
  H      -7.423091      1.604822      0.000000
  H       0.816761      1.103288      0.000000
2
Coordinates from ORCA-job pes E  -0.718040619460
  H      -7.423091      1.604822      0.000000
  H       0.816761      1.103288      0.000000
2
Coordinates from ORCA-job pes E  -0.717305136987
  H      -7.519851      1.610711      0.000000
  H       0.913521      1.097399      0.000000
2
Coordinates from ORCA-job pes E  -0.717305136987
  H      -7.519851      1.610711      0.000000
  H       0.913521      1.097399      0.000000
2
Coordinates from ORCA-job pes E  -0.716602651754
  H      -7.616611      1.616601      0.000000
  H       1.010281      1.091509      0.000000
2
Coordinates from ORCA-job pes E  -0.716602651754
  H      -7.616611      1.616601      0.000000
  H       1.010281      1.091509      0.000000
2
Coordinates from ORCA-job pes E  -0.715930991622
  H      -7.713370      1.622490      0.000000
  H       1.107040      1.085620      0.000000
2
Coordinates from ORCA-job pes E  -0.715930991622
  H      -7.713370      1.622490      0.000000
  H       1.107040      1.085620      0.000000
2
Coordinates from ORCA-job pes E  -0.715288171203
  H      -7.810130      1.628380      0.000000
  H       1.203800      1.079730      0.000000
2
Coordinates from ORCA-job pes E  -0.715288171203
  H      -7.810130      1.628380      0.000000
  H       1.203800      1.079730      0.000000
2
Coordinates from ORCA-job pes E  -0.714672371993
  H      -7.906890      1.634269      0.000000
  H       1.300560      1.073841      0.000000
2
Coordinates from ORCA-job pes E  -0.714672371993
  H      -7.906890      1.634269      0.000000
  H       1.300560      1.073841      0.000000
2
Coordinates from ORCA-job pes E  -0.714081925327
  H      -8.003650      1.640159      0.000000
  H       1.397320      1.067951      0.000000
2
Coordinates from ORCA-job pes E  -0.714081925327
  H      -8.003650      1.640159      0.000000
  H       1.397320      1.067951      0.000000
2
Coordinates from ORCA-job pes E  -0.713515297088
  H      -8.100409      1.646048      0.000000
  H       1.494079      1.062062      0.000000
2
Coordinates from ORCA-job pes E  -0.713515297088
  H      -8.100409      1.646048      0.000000
  H       1.494079      1.062062      0.000000
2
Coordinates from ORCA-job pes E  -0.712971074560
  H      -8.197169      1.651938      0.000000
  H       1.590839      1.056172      0.000000
2
Coordinates from ORCA-job pes E  -0.712971074560
  H      -8.197169      1.651938      0.000000
  H       1.590839      1.056172      0.000000
2
Coordinates from ORCA-job pes E  -0.712447954524
  H      -8.293929      1.657827      0.000000
  H       1.687599      1.050283      0.000000
2
Coordinates from ORCA-job pes E  -0.712447954524
  H      -8.293929      1.657827      0.000000
  H       1.687599      1.050283      0.000000
