3
Coordinates from ORCA-job optimisationDFTB3D3 E -76.068211020061
  O      -3.319480      1.987730      0.000000
  H      -1.893830      1.527550      0.682490
  H      -2.578200      2.576280     -1.417000
3
Coordinates from ORCA-job optimisationDFTB3D3 E -76.110416041921
  O      -3.273525      1.989299     -0.013108
  H      -1.942212      1.563869      0.615018
  H      -2.575773      2.538392     -1.336420
3
Coordinates from ORCA-job optimisationDFTB3D3 E -76.155937851923
  O      -3.225910      1.990872     -0.026578
  H      -1.990872      1.599182      0.549758
  H      -2.574728      2.501505     -1.257690
3
Coordinates from ORCA-job optimisationDFTB3D3 E -76.203542870207
  O      -3.176866      1.992912     -0.041349
  H      -2.039177      1.633217      0.487159
  H      -2.575467      2.465431     -1.180321
3
Coordinates from ORCA-job optimisationDFTB3D3 E -76.250686928025
  O      -3.126717      1.995977     -0.058549
  H      -2.086329      1.665638      0.427770
  H      -2.578465      2.429945     -1.103730
3
Coordinates from ORCA-job optimisationDFTB3D3 E -76.292385590433
  O      -3.075366      2.000577     -0.079291
  H      -2.131603      1.695796      0.372827
  H      -2.584540      2.395187     -1.028045
3
Coordinates from ORCA-job optimisationDFTB3D3 E -76.318580387167
  O      -3.022886      2.009442     -0.109400
  H      -2.170819      1.720235      0.328838
  H      -2.597804      2.361883     -0.953948
3
Coordinates from ORCA-job optimisationDFTB3D3 E -76.320518748160
  O      -2.969285      2.015554     -0.133854
  H      -2.196172      1.720174      0.334346
  H      -2.626053      2.355831     -0.935002
3
Coordinates from ORCA-job optimisationDFTB3D3 E -76.317930215921
  O      -2.964293      1.999946     -0.101505
  H      -2.207193      1.720057      0.336935
  H      -2.620024      2.371557     -0.969939
3
Coordinates from ORCA-job optimisationDFTB3D3 E -76.314128928570
  O      -3.014652      2.015101     -0.123259
  H      -2.153747      1.693682      0.382049
  H      -2.623111      2.382777     -0.993301
3
Coordinates from ORCA-job optimisationDFTB3D3 E -76.321320204377
  O      -2.985310      2.016940     -0.133421
  H      -2.181791      1.713403      0.345787
  H      -2.624409      2.361216     -0.946876
3
Coordinates from ORCA-job optimisationDFTB3D3 E -76.321693340280
  O      -2.977866      2.011295     -0.122918
  H      -2.190624      1.715939      0.342234
  H      -2.623020      2.364326     -0.953827
3
Coordinates from ORCA-job optimisationDFTB3D3 E -76.321736993105
  O      -2.979741      2.012668     -0.125457
  H      -2.188047      1.714732      0.344270
  H      -2.623721      2.364160     -0.953323
3
Coordinates from ORCA-job optimisationDFTB3D3 E -76.321737441557
  O      -2.979461      2.012668     -0.125518
  H      -2.188306      1.714892      0.343982
  H      -2.623743      2.363999     -0.952974
3
Coordinates from ORCA-job optimisationDFTB3D3 E -76.321737461701
  O      -2.979489      2.012654     -0.125481
  H      -2.188289      1.714878      0.344010
  H      -2.623732      2.364029     -0.953039
