2
Coordinates from ORCA-job optimisationDFTB3hydrogen E  -0.956529589031
  H      -5.819090      1.546010      0.000000
  H      -3.419470      1.847190     -0.000000
2
Coordinates from ORCA-job optimisationDFTB3hydrogen E  -0.968341362172
  H      -5.740331      1.555895      0.000000
  H      -3.498229      1.837305     -0.000000
2
Coordinates from ORCA-job optimisationDFTB3hydrogen E  -0.982209379162
  H      -5.661573      1.565780      0.000000
  H      -3.576987      1.827420     -0.000000
2
Coordinates from ORCA-job optimisationDFTB3hydrogen E  -0.998408202592
  H      -5.582814      1.575665      0.000000
  H      -3.655746      1.817535     -0.000000
2
Coordinates from ORCA-job optimisationDFTB3hydrogen E  -1.017195861910
  H      -5.504055      1.585550      0.000000
  H      -3.734505      1.807650     -0.000000
2
Coordinates from ORCA-job optimisationDFTB3hydrogen E  -1.038752683485
  H      -5.425297      1.595436      0.000000
  H      -3.813263      1.797764     -0.000000
2
Coordinates from ORCA-job optimisationDFTB3hydrogen E  -1.063078304028
  H      -5.346538      1.605321      0.000000
  H      -3.892022      1.787879     -0.000000
2
Coordinates from ORCA-job optimisationDFTB3hydrogen E  -1.089839534572
  H      -5.267779      1.615206      0.000000
  H      -3.970781      1.777994     -0.000000
2
Coordinates from ORCA-job optimisationDFTB3hydrogen E  -1.118006838014
  H      -5.189021      1.625091      0.000000
  H      -4.049539      1.768109     -0.000000
2
Coordinates from ORCA-job optimisationDFTB3hydrogen E  -1.144941473003
  H      -5.110262      1.634976      0.000000
  H      -4.128298      1.758224     -0.000000
2
Coordinates from ORCA-job optimisationDFTB3hydrogen E  -1.164276879164
  H      -5.031503      1.644861      0.000000
  H      -4.207057      1.748339     -0.000000
2
Coordinates from ORCA-job optimisationDFTB3hydrogen E  -1.164016340447
  H      -4.965318      1.653168      0.000000
  H      -4.273242      1.740032      0.000000
2
Coordinates from ORCA-job optimisationDFTB3hydrogen E  -1.166935503717
  H      -5.002843      1.648458      0.000000
  H      -4.235717      1.744742      0.000000
2
Coordinates from ORCA-job optimisationDFTB3hydrogen E  -1.167024323487
  H      -4.997937      1.649074      0.000000
  H      -4.240623      1.744126      0.000000
2
Coordinates from ORCA-job optimisationDFTB3hydrogen E  -1.167027286943
  H      -4.996764      1.649221      0.000000
  H      -4.241796      1.743979      0.000000
2
Coordinates from ORCA-job optimisationDFTB3hydrogen E  -1.167027305508
  H      -4.996805      1.649216      0.000000
  H      -4.241755      1.743984      0.000000
