3
Coordinates from ORCA-job optimisation E -75.298427839058
  O      -3.319480      1.987730      0.000000
  H      -1.893830      1.527550      0.682490
  H      -2.578200      2.576280     -1.417000
3
Coordinates from ORCA-job optimisation E -75.350971510459
  O      -3.273982      1.989605     -0.013666
  H      -1.941751      1.563887      0.614882
  H      -2.575777      2.538068     -1.335726
3
Coordinates from ORCA-job optimisation E -75.405302786699
  O      -3.224953      1.991751     -0.028663
  H      -1.989911      1.597836      0.552436
  H      -2.576646      2.501973     -1.258283
3
Coordinates from ORCA-job optimisation E -75.459765212416
  O      -3.173749      1.994459     -0.045321
  H      -2.037688      1.629923      0.493893
  H      -2.580073      2.467178     -1.183082
3
Coordinates from ORCA-job optimisation E -75.511439731571
  O      -3.120843      1.997999     -0.064124
  H      -2.084631      1.660152      0.439151
  H      -2.586036      2.433409     -1.109537
3
Coordinates from ORCA-job optimisation E -75.555277602708
  O      -3.065948      2.002988     -0.086448
  H      -2.129912      1.687635      0.389935
  H      -2.595650      2.400938     -1.037997
3
Coordinates from ORCA-job optimisation E -75.582224311451
  O      -3.007690      2.010681     -0.115274
  H      -2.171687      1.709604      0.351775
  H      -2.612134      2.371275     -0.971011
3
Coordinates from ORCA-job optimisation E -75.584839639611
  O      -2.942972      2.012430     -0.132749
  H      -2.205734      1.709338      0.359568
  H      -2.642804      2.369792     -0.961329
3
Coordinates from ORCA-job optimisation E -75.576542693246
  O      -2.964835      2.034626     -0.175619
  H      -2.172136      1.691689      0.390216
  H      -2.654539      2.365245     -0.949107
3
Coordinates from ORCA-job optimisation E -75.583358786224
  O      -2.979756      2.014364     -0.129084
  H      -2.174810      1.692615      0.388801
  H      -2.636945      2.384582     -0.994227
3
Coordinates from ORCA-job optimisation E -75.584092294155
  O      -2.948794      2.007642     -0.121267
  H      -2.209071      1.714125      0.350030
  H      -2.633645      2.369793     -0.963273
3
Coordinates from ORCA-job optimisation E -75.585932051051
  O      -2.962615      2.014282     -0.132547
  H      -2.191171      1.703200      0.369615
  H      -2.637724      2.374077     -0.971578
3
Coordinates from ORCA-job optimisation E -75.585959315534
  O      -2.960225      2.014078     -0.132616
  H      -2.193061      1.703965      0.368379
  H      -2.638224      2.373517     -0.970273
3
Coordinates from ORCA-job optimisation E -75.585959741971
  O      -2.960067      2.013994     -0.132469
  H      -2.193310      1.704152      0.368033
  H      -2.638133      2.373415     -0.970073
3
Coordinates from ORCA-job optimisation E -75.585959742864
  O      -2.960047      2.013993     -0.132473
  H      -2.193312      1.704137      0.368064
  H      -2.638152      2.373430     -0.970102
