3
Coordinates from ORCA-job optimisation631 E -75.688180575665
  O      -3.319480      1.987730      0.000000
  H      -1.893830      1.527550      0.682490
  H      -2.578200      2.576280     -1.417000
3
Coordinates from ORCA-job optimisation631 E -75.738303306943
  O      -3.273524      1.989574     -0.013697
  H      -1.941866      1.563636      0.615443
  H      -2.576120      2.538350     -1.336255
3
Coordinates from ORCA-job optimisation631 E -75.790799542368
  O      -3.223176      1.991616     -0.028749
  H      -1.990366      1.596853      0.554636
  H      -2.577967      2.503091     -1.260397
3
Coordinates from ORCA-job optimisation631 E -75.844641124794
  O      -3.170289      1.994067     -0.045216
  H      -2.038733      1.628104      0.498008
  H      -2.582487      2.469389     -1.187302
3
Coordinates from ORCA-job optimisation631 E -75.897613046198
  O      -3.115342      1.997309     -0.063814
  H      -2.086391      1.657311      0.445605
  H      -2.589777      2.436940     -1.116302
3
Coordinates from ORCA-job optimisation631 E -75.945064003537
  O      -3.059256      2.001898     -0.085537
  H      -2.132459      1.684469      0.397251
  H      -2.599796      2.405193     -1.046225
3
Coordinates from ORCA-job optimisation631 E -75.977832948587
  O      -3.001238      2.009568     -0.114263
  H      -2.174491      1.706764      0.358448
  H      -2.615781      2.375227     -0.978696
3
Coordinates from ORCA-job optimisation631 E -75.982461919649
  O      -2.930599      2.022320     -0.156543
  H      -2.205742      1.706709      0.365197
  H      -2.655169      2.362531     -0.943164
3
Coordinates from ORCA-job optimisation631 E -75.963410588429
  O      -2.890233      1.990660     -0.097343
  H      -2.245546      1.714833      0.356254
  H      -2.655732      2.386067     -0.993421
3
Coordinates from ORCA-job optimisation631 E -75.978247234535
  O      -2.947839      2.007591     -0.121360
  H      -2.185582      1.681918      0.413983
  H      -2.658088      2.402051     -1.027133
3
Coordinates from ORCA-job optimisation631 E -75.982256541324
  O      -2.945801      2.023937     -0.156779
  H      -2.196791      1.707324      0.361982
  H      -2.648918      2.360299     -0.939714
3
Coordinates from ORCA-job optimisation631 E -75.985154777654
  O      -2.942599      2.013788     -0.135736
  H      -2.197984      1.699999      0.377913
  H      -2.650927      2.377773     -0.976687
3
Coordinates from ORCA-job optimisation631 E -75.985350222731
  O      -2.937007      2.014689     -0.138851
  H      -2.201222      1.700932      0.376603
  H      -2.653281      2.375939     -0.972262
3
Coordinates from ORCA-job optimisation631 E -75.985358971466
  O      -2.937093      2.014719     -0.138896
  H      -2.201893      1.702021      0.374415
  H      -2.652524      2.374821     -0.970030
3
Coordinates from ORCA-job optimisation631 E -75.985359173045
  O      -2.936742      2.014712     -0.138956
  H      -2.201953      1.701826      0.374845
  H      -2.652815      2.375022     -0.970400
3
Coordinates from ORCA-job optimisation631 E -75.985359176241
  O      -2.936788      2.014705     -0.138931
  H      -2.201943      1.701843      0.374806
  H      -2.652779      2.375012     -0.970386
