2
Coordinates from ORCA-job optimisationDFTB3D3hydrogen E  -0.956805753328
  H      -5.819090      1.546010      0.000000
  H      -3.419470      1.847190     -0.000000
2
Coordinates from ORCA-job optimisationDFTB3D3hydrogen E  -0.968635097609
  H      -5.740331      1.555895      0.000000
  H      -3.498229      1.837305     -0.000000
2
Coordinates from ORCA-job optimisationDFTB3D3hydrogen E  -0.982516185257
  H      -5.661573      1.565780      0.000000
  H      -3.576987      1.827420     -0.000000
2
Coordinates from ORCA-job optimisationDFTB3D3hydrogen E  -0.998724206321
  H      -5.582814      1.575665      0.000000
  H      -3.655746      1.817535     -0.000000
2
Coordinates from ORCA-job optimisationDFTB3D3hydrogen E  -1.017518007058
  H      -5.504055      1.585550      0.000000
  H      -3.734505      1.807650     -0.000000
2
Coordinates from ORCA-job optimisationDFTB3D3hydrogen E  -1.039078716547
  H      -5.425297      1.595436      0.000000
  H      -3.813263      1.797764     -0.000000
2
Coordinates from ORCA-job optimisationDFTB3D3hydrogen E  -1.063406642565
  H      -5.346538      1.605321      0.000000
  H      -3.892022      1.787879     -0.000000
2
Coordinates from ORCA-job optimisationDFTB3D3hydrogen E  -1.090169046381
  H      -5.267779      1.615206      0.000000
  H      -3.970781      1.777994     -0.000000
2
Coordinates from ORCA-job optimisationDFTB3D3hydrogen E  -1.118336252556
  H      -5.189021      1.625091      0.000000
  H      -4.049539      1.768109     -0.000000
2
Coordinates from ORCA-job optimisationDFTB3D3hydrogen E  -1.145263681632
  H      -5.110262      1.634976      0.000000
  H      -4.128298      1.758224     -0.000000
2
Coordinates from ORCA-job optimisationDFTB3D3hydrogen E  -1.164453885682
  H      -5.031503      1.644861      0.000000
  H      -4.207057      1.748339     -0.000000
2
Coordinates from ORCA-job optimisationDFTB3D3hydrogen E  -1.164475516997
  H      -4.966934      1.652965      0.000000
  H      -4.271626      1.740235     -0.000000
2
Coordinates from ORCA-job optimisationDFTB3D3hydrogen E  -1.167079105726
  H      -5.002869      1.648455      0.000000
  H      -4.235691      1.744745      0.000000
2
Coordinates from ORCA-job optimisationDFTB3D3hydrogen E  -1.167167075919
  H      -4.997943      1.649073      0.000000
  H      -4.240617      1.744127      0.000000
2
Coordinates from ORCA-job optimisationDFTB3D3hydrogen E  -1.167169788969
  H      -4.996814      1.649215      0.000000
  H      -4.241746      1.743985      0.000000
2
Coordinates from ORCA-job optimisationDFTB3D3hydrogen E  -1.167169807141
  H      -4.996854      1.649210      0.000000
  H      -4.241706      1.743990      0.000000
