3
Coordinates from ORCA-job optimisationDFTB3 E -76.067141558067
  O      -3.319480      1.987730      0.000000
  H      -1.893830      1.527550      0.682490
  H      -2.578200      2.576280     -1.417000
3
Coordinates from ORCA-job optimisationDFTB3 E -76.109328375561
  O      -3.273431      1.989303     -0.013136
  H      -1.942223      1.563809      0.615150
  H      -2.575857      2.538449     -1.336523
3
Coordinates from ORCA-job optimisationDFTB3 E -76.154857318577
  O      -3.225794      1.990873     -0.026605
  H      -1.990889      1.599111      0.549915
  H      -2.574826      2.501576     -1.257820
3
Coordinates from ORCA-job optimisationDFTB3 E -76.202590902699
  O      -3.176744      1.992888     -0.041325
  H      -2.039226      1.633163      0.487285
  H      -2.575540      2.465509     -1.180471
3
Coordinates from ORCA-job optimisationDFTB3 E -76.249974381019
  O      -3.126548      1.995827     -0.058264
  H      -2.086553      1.665672      0.427745
  H      -2.578409      2.430062     -1.103992
3
Coordinates from ORCA-job optimisationDFTB3 E -76.291796092569
  O      -3.075394      2.000599     -0.079331
  H      -2.131564      1.695780      0.372851
  H      -2.584552      2.395181     -1.028029
3
Coordinates from ORCA-job optimisationDFTB3 E -76.318006368806
  O      -3.022842      2.009404     -0.109327
  H      -2.170880      1.720248      0.328822
  H      -2.597787      2.361908     -0.954005
3
Coordinates from ORCA-job optimisationDFTB3 E -76.319936095340
  O      -2.969562      2.015700     -0.134108
  H      -2.195909      1.720142      0.334358
  H      -2.626039      2.355717     -0.934761
3
Coordinates from ORCA-job optimisationDFTB3 E -76.316835073746
  O      -2.962714      1.999216     -0.100277
  H      -2.208649      1.720388      0.336535
  H      -2.620147      2.371956     -0.970768
3
Coordinates from ORCA-job optimisationDFTB3 E -76.314587086802
  O      -3.011334      2.013827     -0.121235
  H      -2.157483      1.695576      0.378786
  H      -2.622693      2.382157     -0.992061
3
Coordinates from ORCA-job optimisationDFTB3 E -76.320674427134
  O      -2.984519      2.017339     -0.134443
  H      -2.182357      1.713991      0.344650
  H      -2.624634      2.360230     -0.944718
3
Coordinates from ORCA-job optimisationDFTB3 E -76.321131233496
  O      -2.978478      2.011414     -0.123042
  H      -2.190011      1.715668      0.342683
  H      -2.623021      2.364478     -0.954151
3
Coordinates from ORCA-job optimisationDFTB3 E -76.321163134930
  O      -2.979701      2.012650     -0.125428
  H      -2.188056      1.714751      0.344232
  H      -2.623754      2.364159     -0.953314
3
Coordinates from ORCA-job optimisationDFTB3 E -76.321163495782
  O      -2.979444      2.012658     -0.125500
  H      -2.188289      1.714899      0.343966
  H      -2.623777      2.364003     -0.952976
3
Coordinates from ORCA-job optimisationDFTB3 E -76.321163513628
  O      -2.979479      2.012648     -0.125470
  H      -2.188263      1.714880      0.344000
  H      -2.623767      2.364033     -0.953040
