2
Coordinates from ORCA-job frequencyHydrogenDFT E  -0.952651810215
  H      -5.819090      1.546010      0.000000
  H      -3.419470      1.847190     -0.000000
2
Coordinates from ORCA-job frequencyHydrogenDFT E  -0.964847536866
  H      -5.740331      1.555895      0.000000
  H      -3.498229      1.837305     -0.000000
2
Coordinates from ORCA-job frequencyHydrogenDFT E  -0.979098548656
  H      -5.661573      1.565780      0.000000
  H      -3.576987      1.827420     -0.000000
2
Coordinates from ORCA-job frequencyHydrogenDFT E  -0.995649244625
  H      -5.582814      1.575665      0.000000
  H      -3.655746      1.817535     -0.000000
2
Coordinates from ORCA-job frequencyHydrogenDFT E  -1.014711176915
  H      -5.504055      1.585550      0.000000
  H      -3.734505      1.807650     -0.000000
2
Coordinates from ORCA-job frequencyHydrogenDFT E  -1.036423548861
  H      -5.425297      1.595436      0.000000
  H      -3.813263      1.797764     -0.000000
2
Coordinates from ORCA-job frequencyHydrogenDFT E  -1.060788520192
  H      -5.346538      1.605321      0.000000
  H      -3.892022      1.787879     -0.000000
2
Coordinates from ORCA-job frequencyHydrogenDFT E  -1.087539361284
  H      -5.267779      1.615206      0.000000
  H      -3.970781      1.777994     -0.000000
2
Coordinates from ORCA-job frequencyHydrogenDFT E  -1.115804642920
  H      -5.189021      1.625091      0.000000
  H      -4.049539      1.768109     -0.000000
2
Coordinates from ORCA-job frequencyHydrogenDFT E  -1.143307263776
  H      -5.110262      1.634976      0.000000
  H      -4.128298      1.758224     -0.000000
2
Coordinates from ORCA-job frequencyHydrogenDFT E  -1.164385271576
  H      -5.031503      1.644861      0.000000
  H      -4.207057      1.748339     -0.000000
2
Coordinates from ORCA-job frequencyHydrogenDFT E  -1.164738459053
  H      -4.952745      1.654746      0.000000
  H      -4.285815      1.738454     -0.000000
2
Coordinates from ORCA-job frequencyHydrogenDFT E  -1.168517640284
  H      -4.996622      1.649239      0.000000
  H      -4.241938      1.743961      0.000000
2
Coordinates from ORCA-job frequencyHydrogenDFT E  -1.168707441473
  H      -4.989761      1.650100      0.000000
  H      -4.248799      1.743100      0.000000
2
Coordinates from ORCA-job frequencyHydrogenDFT E  -1.168716357950
  H      -4.987765      1.650351      0.000000
  H      -4.250795      1.742849      0.000000
2
Coordinates from ORCA-job frequencyHydrogenDFT E  -1.168716429503
  H      -4.987877      1.650337      0.000000
  H      -4.250683      1.742863      0.000000
