2
Coordinates from ORCA-job frequencyHFHydrogen E  -0.865222345742
  H      -5.819090      1.546010      0.000000
  H      -3.419470      1.847190     -0.000000
2
Coordinates from ORCA-job frequencyHFHydrogen E  -0.882887768074
  H      -5.740331      1.555895      0.000000
  H      -3.498229      1.837305     -0.000000
2
Coordinates from ORCA-job frequencyHFHydrogen E  -0.902605132346
  H      -5.661573      1.565780      0.000000
  H      -3.576987      1.827420     -0.000000
2
Coordinates from ORCA-job frequencyHFHydrogen E  -0.924506880824
  H      -5.582814      1.575665      0.000000
  H      -3.655746      1.817535     -0.000000
2
Coordinates from ORCA-job frequencyHFHydrogen E  -0.948682447450
  H      -5.504055      1.585550      0.000000
  H      -3.734505      1.807650     -0.000000
2
Coordinates from ORCA-job frequencyHFHydrogen E  -0.975151968069
  H      -5.425297      1.595436      0.000000
  H      -3.813263      1.797764     -0.000000
2
Coordinates from ORCA-job frequencyHFHydrogen E  -1.003827410939
  H      -5.346538      1.605321      0.000000
  H      -3.892022      1.787879     -0.000000
2
Coordinates from ORCA-job frequencyHFHydrogen E  -1.034408856354
  H      -5.267779      1.615206      0.000000
  H      -3.970781      1.777994     -0.000000
2
Coordinates from ORCA-job frequencyHFHydrogen E  -1.066077249410
  H      -5.189021      1.625091      0.000000
  H      -4.049539      1.768109     -0.000000
2
Coordinates from ORCA-job frequencyHFHydrogen E  -1.096688307871
  H      -5.110262      1.634976      0.000000
  H      -4.128298      1.758224     -0.000000
2
Coordinates from ORCA-job frequencyHFHydrogen E  -1.120742244068
  H      -5.031503      1.644861      0.000000
  H      -4.207057      1.748339     -0.000000
2
Coordinates from ORCA-job frequencyHFHydrogen E  -1.124034368435
  H      -4.952745      1.654746      0.000000
  H      -4.285815      1.738454     -0.000000
2
Coordinates from ORCA-job frequencyHFHydrogen E  -1.126600656640
  H      -4.990309      1.650032      0.000000
  H      -4.248251      1.743168      0.000000
2
Coordinates from ORCA-job frequencyHFHydrogen E  -1.126820274846
  H      -4.983015      1.650947      0.000000
  H      -4.255545      1.742253      0.000000
2
Coordinates from ORCA-job frequencyHFHydrogen E  -1.126827802048
  H      -4.981324      1.651159      0.000000
  H      -4.257236      1.742041      0.000000
2
Coordinates from ORCA-job frequencyHFHydrogen E  -1.126827828414
  H      -4.981420      1.651147      0.000000
  H      -4.257140      1.742053      0.000000
