3
Coordinates from ORCA-job frequencyWaterDFT E -76.121062190091
  O      -3.319480      1.987730      0.000000
  H      -1.893830      1.527550      0.682490
  H      -2.578200      2.576280     -1.417000
3
Coordinates from ORCA-job frequencyWaterDFT E -76.161104687146
  O      -3.273758      1.989492     -0.013471
  H      -1.941931      1.563848      0.615004
  H      -2.575821      2.538221     -1.336043
3
Coordinates from ORCA-job frequencyWaterDFT E -76.203400157140
  O      -3.225751      1.991373     -0.027684
  H      -1.990265      1.598658      0.550751
  H      -2.575494      2.501528     -1.257577
3
Coordinates from ORCA-job frequencyWaterDFT E -76.246751767805
  O      -3.175273      1.993764     -0.043511
  H      -2.038343      1.631485      0.490689
  H      -2.577894      2.466311     -1.181688
3
Coordinates from ORCA-job frequencyWaterDFT E -76.288817596736
  O      -3.121397      1.997475     -0.062884
  H      -2.085196      1.660901      0.437668
  H      -2.584917      2.433184     -1.109294
3
Coordinates from ORCA-job frequencyWaterDFT E -76.324981660067
  O      -3.066147      2.002668     -0.085722
  H      -2.130239      1.687915      0.389404
  H      -2.595124      2.400976     -1.038191
3
Coordinates from ORCA-job frequencyWaterDFT E -76.346502340797
  O      -3.006512      2.011754     -0.117822
  H      -2.169967      1.706962      0.357064
  H      -2.615031      2.372843     -0.973752
3
Coordinates from ORCA-job frequencyWaterDFT E -76.348069592365
  O      -2.932522      2.014183     -0.138720
  H      -2.201349      1.696021      0.387141
  H      -2.657640      2.381355     -0.982931
3
Coordinates from ORCA-job frequencyWaterDFT E -76.347452461771
  O      -2.960441      2.022590     -0.150789
  H      -2.179367      1.690536      0.394217
  H      -2.651702      2.378434     -0.977937
3
Coordinates from ORCA-job frequencyWaterDFT E -76.342393854110
  O      -3.021135      2.000849     -0.091378
  H      -2.175309      1.716141      0.338552
  H      -2.595065      2.374570     -0.981684
3
Coordinates from ORCA-job frequencyWaterDFT E -76.348829287516
  O      -2.960324      2.011352     -0.126762
  H      -2.192961      1.700349      0.376099
  H      -2.638225      2.379859     -0.983847
3
Coordinates from ORCA-job frequencyWaterDFT E -76.348901197140
  O      -2.963338      2.015876     -0.135805
  H      -2.189198      1.700373      0.375248
  H      -2.638974      2.375311     -0.973953
3
Coordinates from ORCA-job frequencyWaterDFT E -76.348979439673
  O      -2.960998      2.014219     -0.132755
  H      -2.190207      1.698823      0.378780
  H      -2.640305      2.378518     -0.980536
3
Coordinates from ORCA-job frequencyWaterDFT E -76.348981247025
  O      -2.961072      2.014042     -0.132360
  H      -2.190871      1.699758      0.376919
  H      -2.639567      2.377759     -0.979069
3
Coordinates from ORCA-job frequencyWaterDFT E -76.348981877040
  O      -2.961060      2.014167     -0.132630
  H      -2.190604      1.699434      0.377556
  H      -2.639847      2.377959     -0.979436
3
Coordinates from ORCA-job frequencyWaterDFT E -76.348981878066
  O      -2.961058      2.014164     -0.132624
  H      -2.190606      1.699434      0.377556
  H      -2.639846      2.377961     -0.979442
